   7
# CELL(abcABC):  100.00000   100.00000   100.00000    90.00000    90.00000    90.00000  cell{angstrom}  Traj: x_centroid{angstrom} Step:           0  Bead:       0
   O              -0.23214796        0.87210629       -0.39077167  O
   H               0.25488934        0.83847537       -1.27920773  H
   H              -1.19058199        0.59884318       -0.44755498  H
   H               0.22118437       -0.21774841        0.01250681  H
   O               0.64201035       -1.07685747        0.81204497  O
   H               0.58879487       -1.94271863        0.39973698  H
   H               0.78346955       -1.11455674        1.76845108  H
