           3
unstable frequency at     -5.142 1/cm IR int. is 0.1894E+01 D^2/Ang^2; red. mass is 1.048 a.m.u.; force const. is 0.000 mDyne/Ang.
  O             0.0000   -0.0748    0.0000   -0.0515    0.0000   -0.0000
  H             0.7647   -0.6696    0.0000    0.4008    0.5814   -0.0000
  H            -0.7647   -0.6696    0.0000    0.4008   -0.5814    0.0000
           3
unstable frequency at     -0.066 1/cm IR int. is 0.3289E-02 D^2/Ang^2; red. mass is 5.513 a.m.u.; force const. is 0.000 mDyne/Ang.
  O             0.0000   -0.0748    0.0000    0.0000   -0.0000   -0.5482
  H             0.7647   -0.6696    0.0000    0.0000   -0.0000   -0.5914
  H            -0.7647   -0.6696    0.0000    0.0000   -0.0000   -0.5914
           3
unstable frequency at     -0.001 1/cm IR int. is 0.3865E-11 D^2/Ang^2; red. mass is 6.005 a.m.u.; force const. is 0.000 mDyne/Ang.
  O             0.0000   -0.0748    0.0000    0.0002    0.5773   -0.0000
  H             0.7647   -0.6696    0.0000    0.0002    0.5774   -0.0000
  H            -0.7647   -0.6696    0.0000    0.0002    0.5773   -0.0000
           3
stable frequency at        0.019 1/cm IR int. is 0.2687E-04 D^2/Ang^2; red. mass is 5.958 a.m.u.; force const. is 0.000 mDyne/Ang.
  O             0.0000   -0.0748    0.0000    0.5746   -0.0002    0.0000
  H             0.7647   -0.6696    0.0000    0.5787    0.0050    0.0000
  H            -0.7647   -0.6696    0.0000    0.5787   -0.0054    0.0000
           3
stable frequency at        2.464 1/cm IR int. is 0.7956E-15 D^2/Ang^2; red. mass is 1.008 a.m.u.; force const. is 0.000 mDyne/Ang.
  O             0.0000   -0.0748    0.0000   -0.0000   -0.0000   -0.0000
  H             0.7647   -0.6696    0.0000   -0.0000   -0.0000    0.7071
  H            -0.7647   -0.6696    0.0000    0.0000   -0.0000   -0.7071
           3
stable frequency at        2.696 1/cm IR int. is 0.5415E+01 D^2/Ang^2; red. mass is 1.145 a.m.u.; force const. is 0.000 mDyne/Ang.
  O             0.0000   -0.0748    0.0000    0.0000    0.0000    0.0957
  H             0.7647   -0.6696    0.0000    0.0000    0.0000   -0.7039
  H            -0.7647   -0.6696    0.0000    0.0000    0.0000   -0.7039
           3
stable frequency at     1593.008 1/cm IR int. is 0.1633E+01 D^2/Ang^2; red. mass is 1.083 a.m.u.; force const. is 1.620 mDyne/Ang.
  O             0.0000   -0.0748    0.0000   -0.0000    0.0709   -0.0000
  H             0.7647   -0.6696    0.0000   -0.4256   -0.5624   -0.0000
  H            -0.7647   -0.6696    0.0000    0.4256   -0.5624    0.0000
           3
stable frequency at     3708.822 1/cm IR int. is 0.4299E-01 D^2/Ang^2; red. mass is 1.045 a.m.u.; force const. is 8.468 mDyne/Ang.
  O             0.0000   -0.0748    0.0000    0.0000   -0.0496    0.0000
  H             0.7647   -0.6696    0.0000   -0.5861    0.3940    0.0000
  H            -0.7647   -0.6696    0.0000    0.5861    0.3940    0.0000
           3
stable frequency at     3813.709 1/cm IR int. is 0.1076E+01 D^2/Ang^2; red. mass is 1.082 a.m.u.; force const. is 9.269 mDyne/Ang.
  O             0.0000   -0.0748    0.0000    0.0701    0.0000    0.0000
  H             0.7647   -0.6696    0.0000   -0.5567    0.4331   -0.0000
  H            -0.7647   -0.6696    0.0000   -0.5567   -0.4331    0.0000
