2
q [0.5, 0.5, 0.0] , b 4 , f 50.064550 , div 0 / 20 (generated by Phonopy)
Na       0.000000000000000     -0.000000000000000      0.000000000000000
Cl       4.029801545982133      2.326607007353555      1.645159592055839
2
q [0.5, 0.5, 0.0] , b 4 , f 50.064550 , div 1 / 20 (generated by Phonopy)
Na      -0.166722043703287      0.093381087184356     -0.138161567990895
Cl       4.154846126130883      2.256569485131343      1.748783293387505
2
q [0.5, 0.5, 0.0] , b 4 , f 50.064550 , div 2 / 20 (generated by Phonopy)
Na      -0.317124172148112      0.177621382930815     -0.262798919078593
Cl       4.267650471537853      2.193387723564352      1.842263584844047
2
q [0.5, 0.5, 0.0] , b 4 , f 50.064550 , div 3 / 20 (generated by Phonopy)
Na      -0.436483977089050      0.244474860155060     -0.361711680939142
Cl       4.357172506920520      2.143246393687978      1.916449964182209
2
q [0.5, 0.5, 0.0] , b 4 , f 50.064550 , div 4 / 20 (generated by Phonopy)
Na      -0.513117689189818      0.287397434710818     -0.425217583275896
Cl       4.414649191718931      2.111053678225707      1.964080551705474
2
q [0.5, 0.5, 0.0] , b 4 , f 50.064550 , div 5 / 20 (generated by Phonopy)
Na      -0.539523866771526      0.302187545941409     -0.447100225896495
Cl       4.434454307561408      2.099960824466825      1.980492933645247
2
q [0.5, 0.5, 0.0] , b 4 , f 50.064550 , div 6 / 20 (generated by Phonopy)
Na      -0.513117689189818      0.287397434710818     -0.425217583275896
Cl       4.414649191718931      2.111053678225707      1.964080551705474
2
q [0.5, 0.5, 0.0] , b 4 , f 50.064550 , div 7 / 20 (generated by Phonopy)
Na      -0.436483977089050      0.244474860155060     -0.361711680939142
Cl       4.357172506920520      2.143246393687978      1.916449964182209
2
q [0.5, 0.5, 0.0] , b 4 , f 50.064550 , div 8 / 20 (generated by Phonopy)
Na      -0.317124172148112      0.177621382930815     -0.262798919078593
Cl       4.267650471537853      2.193387723564352      1.842263584844047
2
q [0.5, 0.5, 0.0] , b 4 , f 50.064550 , div 9 / 20 (generated by Phonopy)
Na      -0.166722043703287      0.093381087184356     -0.138161567990895
Cl       4.154846126130883      2.256569485131343      1.748783293387505
2
q [0.5, 0.5, 0.0] , b 4 , f 50.064550 , div 10 / 20 (generated by Phonopy)
Na      -0.000000000000000      0.000000000000000     -0.000000000000000
Cl       4.029801545982133      2.326607007353555      1.645159592055839
2
q [0.5, 0.5, 0.0] , b 4 , f 50.064550 , div 11 / 20 (generated by Phonopy)
Na       0.166722043703286     -0.093381087184356      0.138161567990895
Cl       3.904756965833384      2.396644529575767      1.541535890724173
2
q [0.5, 0.5, 0.0] , b 4 , f 50.064550 , div 12 / 20 (generated by Phonopy)
Na       0.317124172148112     -0.177621382930814      0.262798919078593
Cl       3.791952620426414      2.459826291142758      1.448055599267631
2
q [0.5, 0.5, 0.0] , b 4 , f 50.064550 , div 13 / 20 (generated by Phonopy)
Na       0.436483977089050     -0.244474860155060      0.361711680939142
Cl       3.702430585043746      2.509967621019133      1.373869219929469
2
q [0.5, 0.5, 0.0] , b 4 , f 50.064550 , div 14 / 20 (generated by Phonopy)
Na       0.513117689189818     -0.287397434710818      0.425217583275896
Cl       3.644953900245335      2.542160336481403      1.326238632406204
2
q [0.5, 0.5, 0.0] , b 4 , f 50.064550 , div 15 / 20 (generated by Phonopy)
Na       0.539523866771526     -0.302187545941409      0.447100225896495
Cl       3.625148784402859      2.553253190240286      1.309826250466431
2
q [0.5, 0.5, 0.0] , b 4 , f 50.064550 , div 16 / 20 (generated by Phonopy)
Na       0.513117689189818     -0.287397434710818      0.425217583275896
Cl       3.644953900245335      2.542160336481403      1.326238632406204
2
q [0.5, 0.5, 0.0] , b 4 , f 50.064550 , div 17 / 20 (generated by Phonopy)
Na       0.436483977089050     -0.244474860155060      0.361711680939142
Cl       3.702430585043746      2.509967621019133      1.373869219929469
2
q [0.5, 0.5, 0.0] , b 4 , f 50.064550 , div 18 / 20 (generated by Phonopy)
Na       0.317124172148112     -0.177621382930815      0.262798919078593
Cl       3.791952620426413      2.459826291142758      1.448055599267631
2
q [0.5, 0.5, 0.0] , b 4 , f 50.064550 , div 19 / 20 (generated by Phonopy)
Na       0.166722043703287     -0.093381087184356      0.138161567990895
Cl       3.904756965833383      2.396644529575767      1.541535890724173
